
---------- Begin Simulation Statistics ----------
sim_seconds                                  0.000168                       # Number of seconds simulated
sim_ticks                                   168278000                       # Number of ticks simulated
final_tick                                  168278000                       # Number of ticks from beginning of simulation (restored from checkpoints and never reset)
sim_freq                                 1000000000000                       # Frequency of simulated ticks
host_inst_rate                                 357801                       # Simulator instruction rate (inst/s)
host_op_rate                                   438403                       # Simulator op (including micro ops) rate (op/s)
host_tick_rate                              883468853                       # Simulator tick rate (ticks/s)
host_mem_usage                                4483184                       # Number of bytes of host memory used
host_seconds                                     0.19                       # Real time elapsed on the host
sim_insts                                       68102                       # Number of instructions simulated
sim_ops                                         83467                       # Number of ops (including micro ops) simulated
system.voltage_domain.voltage                       1                       # Voltage in Volts
system.clk_domain.clock                          1000                       # Clock period in ticks
system.mem_ctrls.bytes_read::ruby.dir_cntrl0        94592                       # Number of bytes read from this memory
system.mem_ctrls.bytes_read::total              94592                       # Number of bytes read from this memory
system.mem_ctrls.num_reads::ruby.dir_cntrl0          739                       # Number of read requests responded to by this memory
system.mem_ctrls.num_reads::total                 739                       # Number of read requests responded to by this memory
system.mem_ctrls.bw_read::ruby.dir_cntrl0    562117449                       # Total read bandwidth from this memory (bytes/s)
system.mem_ctrls.bw_read::total             562117449                       # Total read bandwidth from this memory (bytes/s)
system.mem_ctrls.bw_total::ruby.dir_cntrl0    562117449                       # Total bandwidth to/from this memory (bytes/s)
system.mem_ctrls.bw_total::total            562117449                       # Total bandwidth to/from this memory (bytes/s)
system.mem_ctrls.readReqs                         739                       # Number of read requests accepted
system.mem_ctrls.writeReqs                          0                       # Number of write requests accepted
system.mem_ctrls.readBursts                      1478                       # Number of DRAM read bursts, including those serviced by the write queue
system.mem_ctrls.writeBursts                        0                       # Number of DRAM write bursts, including those merged in the write queue
system.mem_ctrls.bytesReadDRAM                  94592                       # Total number of bytes read from DRAM
system.mem_ctrls.bytesReadWrQ                       0                       # Total number of bytes read from write queue
system.mem_ctrls.bytesWritten                       0                       # Total number of bytes written to DRAM
system.mem_ctrls.bytesReadSys                   94592                       # Total read bytes from the system interface side
system.mem_ctrls.bytesWrittenSys                    0                       # Total written bytes from the system interface side
system.mem_ctrls.servicedByWrQ                      0                       # Number of DRAM read bursts serviced by the write queue
system.mem_ctrls.mergedWrBursts                     0                       # Number of DRAM write bursts merged with an existing one
system.mem_ctrls.neitherReadNorWriteReqs            0                       # Number of requests that are neither read nor write
system.mem_ctrls.perBankRdBursts::0               130                       # Per bank write bursts
system.mem_ctrls.perBankRdBursts::1                70                       # Per bank write bursts
system.mem_ctrls.perBankRdBursts::2                82                       # Per bank write bursts
system.mem_ctrls.perBankRdBursts::3               106                       # Per bank write bursts
system.mem_ctrls.perBankRdBursts::4                64                       # Per bank write bursts
system.mem_ctrls.perBankRdBursts::5               112                       # Per bank write bursts
system.mem_ctrls.perBankRdBursts::6               160                       # Per bank write bursts
system.mem_ctrls.perBankRdBursts::7               126                       # Per bank write bursts
system.mem_ctrls.perBankRdBursts::8                50                       # Per bank write bursts
system.mem_ctrls.perBankRdBursts::9               112                       # Per bank write bursts
system.mem_ctrls.perBankRdBursts::10               88                       # Per bank write bursts
system.mem_ctrls.perBankRdBursts::11              102                       # Per bank write bursts
system.mem_ctrls.perBankRdBursts::12               22                       # Per bank write bursts
system.mem_ctrls.perBankRdBursts::13               52                       # Per bank write bursts
system.mem_ctrls.perBankRdBursts::14               96                       # Per bank write bursts
system.mem_ctrls.perBankRdBursts::15              106                       # Per bank write bursts
system.mem_ctrls.perBankWrBursts::0                 0                       # Per bank write bursts
system.mem_ctrls.perBankWrBursts::1                 0                       # Per bank write bursts
system.mem_ctrls.perBankWrBursts::2                 0                       # Per bank write bursts
system.mem_ctrls.perBankWrBursts::3                 0                       # Per bank write bursts
system.mem_ctrls.perBankWrBursts::4                 0                       # Per bank write bursts
system.mem_ctrls.perBankWrBursts::5                 0                       # Per bank write bursts
system.mem_ctrls.perBankWrBursts::6                 0                       # Per bank write bursts
system.mem_ctrls.perBankWrBursts::7                 0                       # Per bank write bursts
system.mem_ctrls.perBankWrBursts::8                 0                       # Per bank write bursts
system.mem_ctrls.perBankWrBursts::9                 0                       # Per bank write bursts
system.mem_ctrls.perBankWrBursts::10                0                       # Per bank write bursts
system.mem_ctrls.perBankWrBursts::11                0                       # Per bank write bursts
system.mem_ctrls.perBankWrBursts::12                0                       # Per bank write bursts
system.mem_ctrls.perBankWrBursts::13                0                       # Per bank write bursts
system.mem_ctrls.perBankWrBursts::14                0                       # Per bank write bursts
system.mem_ctrls.perBankWrBursts::15                0                       # Per bank write bursts
system.mem_ctrls.numRdRetry                         0                       # Number of times read queue was full causing retry
system.mem_ctrls.numWrRetry                         0                       # Number of times write queue was full causing retry
system.mem_ctrls.totGap                     168164500                       # Total gap between requests
system.mem_ctrls.readPktSize::0                     0                       # Read request sizes (log2)
system.mem_ctrls.readPktSize::1                     0                       # Read request sizes (log2)
system.mem_ctrls.readPktSize::2                     0                       # Read request sizes (log2)
system.mem_ctrls.readPktSize::3                     0                       # Read request sizes (log2)
system.mem_ctrls.readPktSize::4                     0                       # Read request sizes (log2)
system.mem_ctrls.readPktSize::5                     0                       # Read request sizes (log2)
system.mem_ctrls.readPktSize::6                  1478                       # Read request sizes (log2)
system.mem_ctrls.writePktSize::0                    0                       # Write request sizes (log2)
system.mem_ctrls.writePktSize::1                    0                       # Write request sizes (log2)
system.mem_ctrls.writePktSize::2                    0                       # Write request sizes (log2)
system.mem_ctrls.writePktSize::3                    0                       # Write request sizes (log2)
system.mem_ctrls.writePktSize::4                    0                       # Write request sizes (log2)
system.mem_ctrls.writePktSize::5                    0                       # Write request sizes (log2)
system.mem_ctrls.writePktSize::6                    0                       # Write request sizes (log2)
system.mem_ctrls.rdQLenPdf::0                     739                       # What read queue length does an incoming req see
system.mem_ctrls.rdQLenPdf::1                     739                       # What read queue length does an incoming req see
system.mem_ctrls.rdQLenPdf::2                       0                       # What read queue length does an incoming req see
system.mem_ctrls.rdQLenPdf::3                       0                       # What read queue length does an incoming req see
system.mem_ctrls.rdQLenPdf::4                       0                       # What read queue length does an incoming req see
system.mem_ctrls.rdQLenPdf::5                       0                       # What read queue length does an incoming req see
system.mem_ctrls.rdQLenPdf::6                       0                       # What read queue length does an incoming req see
system.mem_ctrls.rdQLenPdf::7                       0                       # What read queue length does an incoming req see
system.mem_ctrls.rdQLenPdf::8                       0                       # What read queue length does an incoming req see
system.mem_ctrls.rdQLenPdf::9                       0                       # What read queue length does an incoming req see
system.mem_ctrls.rdQLenPdf::10                      0                       # What read queue length does an incoming req see
system.mem_ctrls.rdQLenPdf::11                      0                       # What read queue length does an incoming req see
system.mem_ctrls.rdQLenPdf::12                      0                       # What read queue length does an incoming req see
system.mem_ctrls.rdQLenPdf::13                      0                       # What read queue length does an incoming req see
system.mem_ctrls.rdQLenPdf::14                      0                       # What read queue length does an incoming req see
system.mem_ctrls.rdQLenPdf::15                      0                       # What read queue length does an incoming req see
system.mem_ctrls.rdQLenPdf::16                      0                       # What read queue length does an incoming req see
system.mem_ctrls.rdQLenPdf::17                      0                       # What read queue length does an incoming req see
system.mem_ctrls.rdQLenPdf::18                      0                       # What read queue length does an incoming req see
system.mem_ctrls.rdQLenPdf::19                      0                       # What read queue length does an incoming req see
system.mem_ctrls.rdQLenPdf::20                      0                       # What read queue length does an incoming req see
system.mem_ctrls.rdQLenPdf::21                      0                       # What read queue length does an incoming req see
system.mem_ctrls.rdQLenPdf::22                      0                       # What read queue length does an incoming req see
system.mem_ctrls.rdQLenPdf::23                      0                       # What read queue length does an incoming req see
system.mem_ctrls.rdQLenPdf::24                      0                       # What read queue length does an incoming req see
system.mem_ctrls.rdQLenPdf::25                      0                       # What read queue length does an incoming req see
system.mem_ctrls.rdQLenPdf::26                      0                       # What read queue length does an incoming req see
system.mem_ctrls.rdQLenPdf::27                      0                       # What read queue length does an incoming req see
system.mem_ctrls.rdQLenPdf::28                      0                       # What read queue length does an incoming req see
system.mem_ctrls.rdQLenPdf::29                      0                       # What read queue length does an incoming req see
system.mem_ctrls.rdQLenPdf::30                      0                       # What read queue length does an incoming req see
system.mem_ctrls.rdQLenPdf::31                      0                       # What read queue length does an incoming req see
system.mem_ctrls.wrQLenPdf::0                       0                       # What write queue length does an incoming req see
system.mem_ctrls.wrQLenPdf::1                       0                       # What write queue length does an incoming req see
system.mem_ctrls.wrQLenPdf::2                       0                       # What write queue length does an incoming req see
system.mem_ctrls.wrQLenPdf::3                       0                       # What write queue length does an incoming req see
system.mem_ctrls.wrQLenPdf::4                       0                       # What write queue length does an incoming req see
system.mem_ctrls.wrQLenPdf::5                       0                       # What write queue length does an incoming req see
system.mem_ctrls.wrQLenPdf::6                       0                       # What write queue length does an incoming req see
system.mem_ctrls.wrQLenPdf::7                       0                       # What write queue length does an incoming req see
system.mem_ctrls.wrQLenPdf::8                       0                       # What write queue length does an incoming req see
system.mem_ctrls.wrQLenPdf::9                       0                       # What write queue length does an incoming req see
system.mem_ctrls.wrQLenPdf::10                      0                       # What write queue length does an incoming req see
system.mem_ctrls.wrQLenPdf::11                      0                       # What write queue length does an incoming req see
system.mem_ctrls.wrQLenPdf::12                      0                       # What write queue length does an incoming req see
system.mem_ctrls.wrQLenPdf::13                      0                       # What write queue length does an incoming req see
system.mem_ctrls.wrQLenPdf::14                      0                       # What write queue length does an incoming req see
system.mem_ctrls.wrQLenPdf::15                      0                       # What write queue length does an incoming req see
system.mem_ctrls.wrQLenPdf::16                      0                       # What write queue length does an incoming req see
system.mem_ctrls.wrQLenPdf::17                      0                       # What write queue length does an incoming req see
system.mem_ctrls.wrQLenPdf::18                      0                       # What write queue length does an incoming req see
system.mem_ctrls.wrQLenPdf::19                      0                       # What write queue length does an incoming req see
system.mem_ctrls.wrQLenPdf::20                      0                       # What write queue length does an incoming req see
system.mem_ctrls.wrQLenPdf::21                      0                       # What write queue length does an incoming req see
system.mem_ctrls.wrQLenPdf::22                      0                       # What write queue length does an incoming req see
system.mem_ctrls.wrQLenPdf::23                      0                       # What write queue length does an incoming req see
system.mem_ctrls.wrQLenPdf::24                      0                       # What write queue length does an incoming req see
system.mem_ctrls.wrQLenPdf::25                      0                       # What write queue length does an incoming req see
system.mem_ctrls.wrQLenPdf::26                      0                       # What write queue length does an incoming req see
system.mem_ctrls.wrQLenPdf::27                      0                       # What write queue length does an incoming req see
system.mem_ctrls.wrQLenPdf::28                      0                       # What write queue length does an incoming req see
system.mem_ctrls.wrQLenPdf::29                      0                       # What write queue length does an incoming req see
system.mem_ctrls.wrQLenPdf::30                      0                       # What write queue length does an incoming req see
system.mem_ctrls.wrQLenPdf::31                      0                       # What write queue length does an incoming req see
system.mem_ctrls.wrQLenPdf::32                      0                       # What write queue length does an incoming req see
system.mem_ctrls.wrQLenPdf::33                      0                       # What write queue length does an incoming req see
system.mem_ctrls.wrQLenPdf::34                      0                       # What write queue length does an incoming req see
system.mem_ctrls.wrQLenPdf::35                      0                       # What write queue length does an incoming req see
system.mem_ctrls.wrQLenPdf::36                      0                       # What write queue length does an incoming req see
system.mem_ctrls.wrQLenPdf::37                      0                       # What write queue length does an incoming req see
system.mem_ctrls.wrQLenPdf::38                      0                       # What write queue length does an incoming req see
system.mem_ctrls.wrQLenPdf::39                      0                       # What write queue length does an incoming req see
system.mem_ctrls.wrQLenPdf::40                      0                       # What write queue length does an incoming req see
system.mem_ctrls.wrQLenPdf::41                      0                       # What write queue length does an incoming req see
system.mem_ctrls.wrQLenPdf::42                      0                       # What write queue length does an incoming req see
system.mem_ctrls.wrQLenPdf::43                      0                       # What write queue length does an incoming req see
system.mem_ctrls.wrQLenPdf::44                      0                       # What write queue length does an incoming req see
system.mem_ctrls.wrQLenPdf::45                      0                       # What write queue length does an incoming req see
system.mem_ctrls.wrQLenPdf::46                      0                       # What write queue length does an incoming req see
system.mem_ctrls.wrQLenPdf::47                      0                       # What write queue length does an incoming req see
system.mem_ctrls.wrQLenPdf::48                      0                       # What write queue length does an incoming req see
system.mem_ctrls.wrQLenPdf::49                      0                       # What write queue length does an incoming req see
system.mem_ctrls.wrQLenPdf::50                      0                       # What write queue length does an incoming req see
system.mem_ctrls.wrQLenPdf::51                      0                       # What write queue length does an incoming req see
system.mem_ctrls.wrQLenPdf::52                      0                       # What write queue length does an incoming req see
system.mem_ctrls.wrQLenPdf::53                      0                       # What write queue length does an incoming req see
system.mem_ctrls.wrQLenPdf::54                      0                       # What write queue length does an incoming req see
system.mem_ctrls.wrQLenPdf::55                      0                       # What write queue length does an incoming req see
system.mem_ctrls.wrQLenPdf::56                      0                       # What write queue length does an incoming req see
system.mem_ctrls.wrQLenPdf::57                      0                       # What write queue length does an incoming req see
system.mem_ctrls.wrQLenPdf::58                      0                       # What write queue length does an incoming req see
system.mem_ctrls.wrQLenPdf::59                      0                       # What write queue length does an incoming req see
system.mem_ctrls.wrQLenPdf::60                      0                       # What write queue length does an incoming req see
system.mem_ctrls.wrQLenPdf::61                      0                       # What write queue length does an incoming req see
system.mem_ctrls.wrQLenPdf::62                      0                       # What write queue length does an incoming req see
system.mem_ctrls.wrQLenPdf::63                      0                       # What write queue length does an incoming req see
system.mem_ctrls.bytesPerActivate::samples          269                       # Bytes accessed per row activation
system.mem_ctrls.bytesPerActivate::mean    344.981413                       # Bytes accessed per row activation
system.mem_ctrls.bytesPerActivate::gmean   270.214988                       # Bytes accessed per row activation
system.mem_ctrls.bytesPerActivate::stdev   256.358402                       # Bytes accessed per row activation
system.mem_ctrls.bytesPerActivate::128-255          100     37.17%     37.17% # Bytes accessed per row activation
system.mem_ctrls.bytesPerActivate::256-383           63     23.42%     60.59% # Bytes accessed per row activation
system.mem_ctrls.bytesPerActivate::384-511           35     13.01%     73.61% # Bytes accessed per row activation
system.mem_ctrls.bytesPerActivate::512-639           30     11.15%     84.76% # Bytes accessed per row activation
system.mem_ctrls.bytesPerActivate::640-767            8      2.97%     87.73% # Bytes accessed per row activation
system.mem_ctrls.bytesPerActivate::768-895           10      3.72%     91.45% # Bytes accessed per row activation
system.mem_ctrls.bytesPerActivate::896-1023           10      3.72%     95.17% # Bytes accessed per row activation
system.mem_ctrls.bytesPerActivate::1024-1151           13      4.83%    100.00% # Bytes accessed per row activation
system.mem_ctrls.bytesPerActivate::total          269                       # Bytes accessed per row activation
system.mem_ctrls.totQLat                     17462000                       # Total ticks spent queuing
system.mem_ctrls.totMemAccLat                45174500                       # Total ticks spent from burst creation until serviced by the DRAM
system.mem_ctrls.totBusLat                    7390000                       # Total ticks spent in databus transfers
system.mem_ctrls.avgQLat                     11814.61                       # Average queueing delay per DRAM burst
system.mem_ctrls.avgBusLat                    5000.00                       # Average bus latency per DRAM burst
system.mem_ctrls.avgMemAccLat                30564.61                       # Average memory access latency per DRAM burst
system.mem_ctrls.avgRdBW                       562.12                       # Average DRAM read bandwidth in MiByte/s
system.mem_ctrls.avgWrBW                         0.00                       # Average achieved write bandwidth in MiByte/s
system.mem_ctrls.avgRdBWSys                    562.12                       # Average system read bandwidth in MiByte/s
system.mem_ctrls.avgWrBWSys                      0.00                       # Average system write bandwidth in MiByte/s
system.mem_ctrls.peakBW                      12800.00                       # Theoretical peak bandwidth in MiByte/s
system.mem_ctrls.busUtil                         4.39                       # Data bus utilization in percentage
system.mem_ctrls.busUtilRead                     4.39                       # Data bus utilization in percentage for reads
system.mem_ctrls.busUtilWrite                    0.00                       # Data bus utilization in percentage for writes
system.mem_ctrls.avgRdQLen                       2.00                       # Average read queue length when enqueuing
system.mem_ctrls.avgWrQLen                       0.00                       # Average write queue length when enqueuing
system.mem_ctrls.readRowHits                     1199                       # Number of row buffer hits during reads
system.mem_ctrls.writeRowHits                       0                       # Number of row buffer hits during writes
system.mem_ctrls.readRowHitRate                 81.12                       # Row buffer hit rate for reads
system.mem_ctrls.writeRowHitRate                  nan                       # Row buffer hit rate for writes
system.mem_ctrls.avgGap                     227556.83                       # Average gap between requests
system.mem_ctrls.pageHitRate                    81.12                       # Row buffer hit rate, read and write combined
system.mem_ctrls_0.actEnergy                  1111320                       # Energy for activate commands per rank (pJ)
system.mem_ctrls_0.preEnergy                   606375                       # Energy for precharge commands per rank (pJ)
system.mem_ctrls_0.readEnergy                 6255600                       # Energy for read commands per rank (pJ)
system.mem_ctrls_0.writeEnergy                      0                       # Energy for write commands per rank (pJ)
system.mem_ctrls_0.refreshEnergy             10679760                       # Energy for refresh commands per rank (pJ)
system.mem_ctrls_0.actBackEnergy             95768550                       # Energy for active background per rank (pJ)
system.mem_ctrls_0.preBackEnergy             14255250                       # Energy for precharge background per rank (pJ)
system.mem_ctrls_0.totalEnergy              128676855                       # Total energy per rank (pJ)
system.mem_ctrls_0.averagePower            785.710892                       # Core power per rank (mW)
system.mem_ctrls_0.memoryStateTime::IDLE     23161750                       # Time in different power states
system.mem_ctrls_0.memoryStateTime::REF       5460000                       # Time in different power states
system.mem_ctrls_0.memoryStateTime::PRE_PDN            0                       # Time in different power states
system.mem_ctrls_0.memoryStateTime::ACT     135163250                       # Time in different power states
system.mem_ctrls_0.memoryStateTime::ACT_PDN            0                       # Time in different power states
system.mem_ctrls_1.actEnergy                   869400                       # Energy for activate commands per rank (pJ)
system.mem_ctrls_1.preEnergy                   474375                       # Energy for precharge commands per rank (pJ)
system.mem_ctrls_1.readEnergy                 4836000                       # Energy for read commands per rank (pJ)
system.mem_ctrls_1.writeEnergy                      0                       # Energy for write commands per rank (pJ)
system.mem_ctrls_1.refreshEnergy             10679760                       # Energy for refresh commands per rank (pJ)
system.mem_ctrls_1.actBackEnergy             93442950                       # Energy for active background per rank (pJ)
system.mem_ctrls_1.preBackEnergy             16295250                       # Energy for precharge background per rank (pJ)
system.mem_ctrls_1.totalEnergy              126597735                       # Total energy per rank (pJ)
system.mem_ctrls_1.averagePower            773.015624                       # Core power per rank (mW)
system.mem_ctrls_1.memoryStateTime::IDLE     27738500                       # Time in different power states
system.mem_ctrls_1.memoryStateTime::REF       5460000                       # Time in different power states
system.mem_ctrls_1.memoryStateTime::PRE_PDN            0                       # Time in different power states
system.mem_ctrls_1.memoryStateTime::ACT     131765000                       # Time in different power states
system.mem_ctrls_1.memoryStateTime::ACT_PDN            0                       # Time in different power states
system.ruby_clk_domain.clock                      500                       # Clock period in ticks
system.ruby.phys_mem.bytes_read::cpu.inst       304732                       # Number of bytes read from this memory
system.ruby.phys_mem.bytes_read::cpu.data        82225                       # Number of bytes read from this memory
system.ruby.phys_mem.bytes_read::total         386957                       # Number of bytes read from this memory
system.ruby.phys_mem.bytes_inst_read::cpu.inst       304732                       # Number of instructions bytes read from this memory
system.ruby.phys_mem.bytes_inst_read::total       304732                       # Number of instructions bytes read from this memory
system.ruby.phys_mem.bytes_written::cpu.data        55280                       # Number of bytes written to this memory
system.ruby.phys_mem.bytes_written::total        55280                       # Number of bytes written to this memory
system.ruby.phys_mem.num_reads::cpu.inst        76183                       # Number of read requests responded to by this memory
system.ruby.phys_mem.num_reads::cpu.data        17483                       # Number of read requests responded to by this memory
system.ruby.phys_mem.num_reads::total           93666                       # Number of read requests responded to by this memory
system.ruby.phys_mem.num_writes::cpu.data        14226                       # Number of write requests responded to by this memory
system.ruby.phys_mem.num_writes::total          14226                       # Number of write requests responded to by this memory
system.ruby.phys_mem.bw_read::cpu.inst     1810884370                       # Total read bandwidth from this memory (bytes/s)
system.ruby.phys_mem.bw_read::cpu.data      488625964                       # Total read bandwidth from this memory (bytes/s)
system.ruby.phys_mem.bw_read::total        2299510334                       # Total read bandwidth from this memory (bytes/s)
system.ruby.phys_mem.bw_inst_read::cpu.inst   1810884370                       # Instruction read bandwidth from this memory (bytes/s)
system.ruby.phys_mem.bw_inst_read::total   1810884370                       # Instruction read bandwidth from this memory (bytes/s)
system.ruby.phys_mem.bw_write::cpu.data     328504023                       # Write bandwidth from this memory (bytes/s)
system.ruby.phys_mem.bw_write::total        328504023                       # Write bandwidth from this memory (bytes/s)
system.ruby.phys_mem.bw_total::cpu.inst    1810884370                       # Total bandwidth to/from this memory (bytes/s)
system.ruby.phys_mem.bw_total::cpu.data     817129987                       # Total bandwidth to/from this memory (bytes/s)
system.ruby.phys_mem.bw_total::total       2628014357                       # Total bandwidth to/from this memory (bytes/s)
system.cpu_voltage_domain.voltage                   1                       # Voltage in Volts
system.cpu_clk_domain.clock                       500                       # Clock period in ticks
system.cpu.dstage2_mmu.stage2_tlb.walker.walks            0                       # Table walker walks requested
system.cpu.dstage2_mmu.stage2_tlb.walker.walkRequestOrigin_Requested::Data            0                       # Table walker requests started/completed, data/inst
system.cpu.dstage2_mmu.stage2_tlb.walker.walkRequestOrigin_Requested::Inst            0                       # Table walker requests started/completed, data/inst
system.cpu.dstage2_mmu.stage2_tlb.walker.walkRequestOrigin_Requested::total            0                       # Table walker requests started/completed, data/inst
system.cpu.dstage2_mmu.stage2_tlb.walker.walkRequestOrigin_Completed::Data            0                       # Table walker requests started/completed, data/inst
system.cpu.dstage2_mmu.stage2_tlb.walker.walkRequestOrigin_Completed::Inst            0                       # Table walker requests started/completed, data/inst
system.cpu.dstage2_mmu.stage2_tlb.walker.walkRequestOrigin_Completed::total            0                       # Table walker requests started/completed, data/inst
system.cpu.dstage2_mmu.stage2_tlb.walker.walkRequestOrigin::total            0                       # Table walker requests started/completed, data/inst
system.cpu.dstage2_mmu.stage2_tlb.inst_hits            0                       # ITB inst hits
system.cpu.dstage2_mmu.stage2_tlb.inst_misses            0                       # ITB inst misses
system.cpu.dstage2_mmu.stage2_tlb.read_hits            0                       # DTB read hits
system.cpu.dstage2_mmu.stage2_tlb.read_misses            0                       # DTB read misses
system.cpu.dstage2_mmu.stage2_tlb.write_hits            0                       # DTB write hits
system.cpu.dstage2_mmu.stage2_tlb.write_misses            0                       # DTB write misses
system.cpu.dstage2_mmu.stage2_tlb.flush_tlb            0                       # Number of times complete TLB was flushed
system.cpu.dstage2_mmu.stage2_tlb.flush_tlb_mva            0                       # Number of times TLB was flushed by MVA
system.cpu.dstage2_mmu.stage2_tlb.flush_tlb_mva_asid            0                       # Number of times TLB was flushed by MVA & ASID
system.cpu.dstage2_mmu.stage2_tlb.flush_tlb_asid            0                       # Number of times TLB was flushed by ASID
system.cpu.dstage2_mmu.stage2_tlb.flush_entries            0                       # Number of entries that have been flushed from TLB
system.cpu.dstage2_mmu.stage2_tlb.align_faults            0                       # Number of TLB faults due to alignment restrictions
system.cpu.dstage2_mmu.stage2_tlb.prefetch_faults            0                       # Number of TLB faults due to prefetch
system.cpu.dstage2_mmu.stage2_tlb.domain_faults            0                       # Number of TLB faults due to domain restrictions
system.cpu.dstage2_mmu.stage2_tlb.perms_faults            0                       # Number of TLB faults due to permissions restrictions
system.cpu.dstage2_mmu.stage2_tlb.read_accesses            0                       # DTB read accesses
system.cpu.dstage2_mmu.stage2_tlb.write_accesses            0                       # DTB write accesses
system.cpu.dstage2_mmu.stage2_tlb.inst_accesses            0                       # ITB inst accesses
system.cpu.dstage2_mmu.stage2_tlb.hits              0                       # DTB hits
system.cpu.dstage2_mmu.stage2_tlb.misses            0                       # DTB misses
system.cpu.dstage2_mmu.stage2_tlb.accesses            0                       # DTB accesses
system.cpu.dtb.walker.walks                         0                       # Table walker walks requested
system.cpu.dtb.walker.walkRequestOrigin_Requested::Data            0                       # Table walker requests started/completed, data/inst
system.cpu.dtb.walker.walkRequestOrigin_Requested::Inst            0                       # Table walker requests started/completed, data/inst
system.cpu.dtb.walker.walkRequestOrigin_Requested::total            0                       # Table walker requests started/completed, data/inst
system.cpu.dtb.walker.walkRequestOrigin_Completed::Data            0                       # Table walker requests started/completed, data/inst
system.cpu.dtb.walker.walkRequestOrigin_Completed::Inst            0                       # Table walker requests started/completed, data/inst
system.cpu.dtb.walker.walkRequestOrigin_Completed::total            0                       # Table walker requests started/completed, data/inst
system.cpu.dtb.walker.walkRequestOrigin::total            0                       # Table walker requests started/completed, data/inst
system.cpu.dtb.inst_hits                            0                       # ITB inst hits
system.cpu.dtb.inst_misses                          0                       # ITB inst misses
system.cpu.dtb.read_hits                            0                       # DTB read hits
system.cpu.dtb.read_misses                          0                       # DTB read misses
system.cpu.dtb.write_hits                           0                       # DTB write hits
system.cpu.dtb.write_misses                         0                       # DTB write misses
system.cpu.dtb.flush_tlb                            0                       # Number of times complete TLB was flushed
system.cpu.dtb.flush_tlb_mva                        0                       # Number of times TLB was flushed by MVA
system.cpu.dtb.flush_tlb_mva_asid                   0                       # Number of times TLB was flushed by MVA & ASID
system.cpu.dtb.flush_tlb_asid                       0                       # Number of times TLB was flushed by ASID
system.cpu.dtb.flush_entries                        0                       # Number of entries that have been flushed from TLB
system.cpu.dtb.align_faults                         0                       # Number of TLB faults due to alignment restrictions
system.cpu.dtb.prefetch_faults                      0                       # Number of TLB faults due to prefetch
system.cpu.dtb.domain_faults                        0                       # Number of TLB faults due to domain restrictions
system.cpu.dtb.perms_faults                         0                       # Number of TLB faults due to permissions restrictions
system.cpu.dtb.read_accesses                        0                       # DTB read accesses
system.cpu.dtb.write_accesses                       0                       # DTB write accesses
system.cpu.dtb.inst_accesses                        0                       # ITB inst accesses
system.cpu.dtb.hits                                 0                       # DTB hits
system.cpu.dtb.misses                               0                       # DTB misses
system.cpu.dtb.accesses                             0                       # DTB accesses
system.cpu.istage2_mmu.stage2_tlb.walker.walks            0                       # Table walker walks requested
system.cpu.istage2_mmu.stage2_tlb.walker.walkRequestOrigin_Requested::Data            0                       # Table walker requests started/completed, data/inst
system.cpu.istage2_mmu.stage2_tlb.walker.walkRequestOrigin_Requested::Inst            0                       # Table walker requests started/completed, data/inst
system.cpu.istage2_mmu.stage2_tlb.walker.walkRequestOrigin_Requested::total            0                       # Table walker requests started/completed, data/inst
system.cpu.istage2_mmu.stage2_tlb.walker.walkRequestOrigin_Completed::Data            0                       # Table walker requests started/completed, data/inst
system.cpu.istage2_mmu.stage2_tlb.walker.walkRequestOrigin_Completed::Inst            0                       # Table walker requests started/completed, data/inst
system.cpu.istage2_mmu.stage2_tlb.walker.walkRequestOrigin_Completed::total            0                       # Table walker requests started/completed, data/inst
system.cpu.istage2_mmu.stage2_tlb.walker.walkRequestOrigin::total            0                       # Table walker requests started/completed, data/inst
system.cpu.istage2_mmu.stage2_tlb.inst_hits            0                       # ITB inst hits
system.cpu.istage2_mmu.stage2_tlb.inst_misses            0                       # ITB inst misses
system.cpu.istage2_mmu.stage2_tlb.read_hits            0                       # DTB read hits
system.cpu.istage2_mmu.stage2_tlb.read_misses            0                       # DTB read misses
system.cpu.istage2_mmu.stage2_tlb.write_hits            0                       # DTB write hits
system.cpu.istage2_mmu.stage2_tlb.write_misses            0                       # DTB write misses
system.cpu.istage2_mmu.stage2_tlb.flush_tlb            0                       # Number of times complete TLB was flushed
system.cpu.istage2_mmu.stage2_tlb.flush_tlb_mva            0                       # Number of times TLB was flushed by MVA
system.cpu.istage2_mmu.stage2_tlb.flush_tlb_mva_asid            0                       # Number of times TLB was flushed by MVA & ASID
system.cpu.istage2_mmu.stage2_tlb.flush_tlb_asid            0                       # Number of times TLB was flushed by ASID
system.cpu.istage2_mmu.stage2_tlb.flush_entries            0                       # Number of entries that have been flushed from TLB
system.cpu.istage2_mmu.stage2_tlb.align_faults            0                       # Number of TLB faults due to alignment restrictions
system.cpu.istage2_mmu.stage2_tlb.prefetch_faults            0                       # Number of TLB faults due to prefetch
system.cpu.istage2_mmu.stage2_tlb.domain_faults            0                       # Number of TLB faults due to domain restrictions
system.cpu.istage2_mmu.stage2_tlb.perms_faults            0                       # Number of TLB faults due to permissions restrictions
system.cpu.istage2_mmu.stage2_tlb.read_accesses            0                       # DTB read accesses
system.cpu.istage2_mmu.stage2_tlb.write_accesses            0                       # DTB write accesses
system.cpu.istage2_mmu.stage2_tlb.inst_accesses            0                       # ITB inst accesses
system.cpu.istage2_mmu.stage2_tlb.hits              0                       # DTB hits
system.cpu.istage2_mmu.stage2_tlb.misses            0                       # DTB misses
system.cpu.istage2_mmu.stage2_tlb.accesses            0                       # DTB accesses
system.cpu.itb.walker.walks                         0                       # Table walker walks requested
system.cpu.itb.walker.walkRequestOrigin_Requested::Data            0                       # Table walker requests started/completed, data/inst
system.cpu.itb.walker.walkRequestOrigin_Requested::Inst            0                       # Table walker requests started/completed, data/inst
system.cpu.itb.walker.walkRequestOrigin_Requested::total            0                       # Table walker requests started/completed, data/inst
system.cpu.itb.walker.walkRequestOrigin_Completed::Data            0                       # Table walker requests started/completed, data/inst
system.cpu.itb.walker.walkRequestOrigin_Completed::Inst            0                       # Table walker requests started/completed, data/inst
system.cpu.itb.walker.walkRequestOrigin_Completed::total            0                       # Table walker requests started/completed, data/inst
system.cpu.itb.walker.walkRequestOrigin::total            0                       # Table walker requests started/completed, data/inst
system.cpu.itb.inst_hits                            0                       # ITB inst hits
system.cpu.itb.inst_misses                          0                       # ITB inst misses
system.cpu.itb.read_hits                            0                       # DTB read hits
system.cpu.itb.read_misses                          0                       # DTB read misses
system.cpu.itb.write_hits                           0                       # DTB write hits
system.cpu.itb.write_misses                         0                       # DTB write misses
system.cpu.itb.flush_tlb                            0                       # Number of times complete TLB was flushed
system.cpu.itb.flush_tlb_mva                        0                       # Number of times TLB was flushed by MVA
system.cpu.itb.flush_tlb_mva_asid                   0                       # Number of times TLB was flushed by MVA & ASID
system.cpu.itb.flush_tlb_asid                       0                       # Number of times TLB was flushed by ASID
system.cpu.itb.flush_entries                        0                       # Number of entries that have been flushed from TLB
system.cpu.itb.align_faults                         0                       # Number of TLB faults due to alignment restrictions
system.cpu.itb.prefetch_faults                      0                       # Number of TLB faults due to prefetch
system.cpu.itb.domain_faults                        0                       # Number of TLB faults due to domain restrictions
system.cpu.itb.perms_faults                         0                       # Number of TLB faults due to permissions restrictions
system.cpu.itb.read_accesses                        0                       # DTB read accesses
system.cpu.itb.write_accesses                       0                       # DTB write accesses
system.cpu.itb.inst_accesses                        0                       # ITB inst accesses
system.cpu.itb.hits                                 0                       # DTB hits
system.cpu.itb.misses                               0                       # DTB misses
system.cpu.itb.accesses                             0                       # DTB accesses
system.cpu.workload.num_syscalls                   18                       # Number of system calls
system.cpu.numCycles                           336556                       # number of cpu cycles simulated
system.cpu.numWorkItemsStarted                      0                       # number of work items this cpu started
system.cpu.numWorkItemsCompleted                    0                       # number of work items this cpu completed
system.cpu.committedInsts                       68102                       # Number of instructions committed
system.cpu.committedOps                         83467                       # Number of ops (including micro ops) committed
system.cpu.num_int_alu_accesses                 73373                       # Number of integer alu accesses
system.cpu.num_fp_alu_accesses                    129                       # Number of float alu accesses
system.cpu.num_func_calls                        4253                       # number of times a function call or return occured
system.cpu.num_conditional_control_insts        10210                       # number of instructions that are conditional controls
system.cpu.num_int_insts                        73373                       # number of integer instructions
system.cpu.num_fp_insts                           129                       # number of float instructions
system.cpu.num_int_register_reads              123119                       # number of times the integer registers were read
system.cpu.num_int_register_writes              49967                       # number of times the integer registers were written
system.cpu.num_fp_register_reads                  149                       # number of times the floating registers were read
system.cpu.num_fp_register_writes                 135                       # number of times the floating registers were written
system.cpu.num_cc_register_reads               295514                       # number of times the CC registers were read
system.cpu.num_cc_register_writes               39297                       # number of times the CC registers were written
system.cpu.num_mem_refs                         31836                       # number of memory refs
system.cpu.num_load_insts                       17478                       # Number of load instructions
system.cpu.num_store_insts                      14358                       # Number of store instructions
system.cpu.num_idle_cycles                   0.002000                       # Number of idle cycles
system.cpu.num_busy_cycles               336555.998000                       # Number of busy cycles
system.cpu.not_idle_fraction                 1.000000                       # Percentage of non-idle cycles
system.cpu.idle_fraction                     0.000000                       # Percentage of idle cycles
system.cpu.Branches                             15350                       # Number of branches fetched
system.cpu.op_class::No_OpClass                     0      0.00%      0.00% # Class of executed instruction
system.cpu.op_class::IntAlu                     51802     61.91%     61.91% # Class of executed instruction
system.cpu.op_class::IntMult                       25      0.03%     61.94% # Class of executed instruction
system.cpu.op_class::IntDiv                         0      0.00%     61.94% # Class of executed instruction
system.cpu.op_class::FloatAdd                       0      0.00%     61.94% # Class of executed instruction
system.cpu.op_class::FloatCmp                       0      0.00%     61.94% # Class of executed instruction
system.cpu.op_class::FloatCvt                       0      0.00%     61.94% # Class of executed instruction
system.cpu.op_class::FloatMult                      0      0.00%     61.94% # Class of executed instruction
system.cpu.op_class::FloatDiv                       0      0.00%     61.94% # Class of executed instruction
system.cpu.op_class::FloatSqrt                      0      0.00%     61.94% # Class of executed instruction
system.cpu.op_class::SimdAdd                        0      0.00%     61.94% # Class of executed instruction
system.cpu.op_class::SimdAddAcc                     0      0.00%     61.94% # Class of executed instruction
system.cpu.op_class::SimdAlu                        0      0.00%     61.94% # Class of executed instruction
system.cpu.op_class::SimdCmp                        0      0.00%     61.94% # Class of executed instruction
system.cpu.op_class::SimdCvt                        0      0.00%     61.94% # Class of executed instruction
system.cpu.op_class::SimdMisc                       0      0.00%     61.94% # Class of executed instruction
system.cpu.op_class::SimdMult                       0      0.00%     61.94% # Class of executed instruction
system.cpu.op_class::SimdMultAcc                    0      0.00%     61.94% # Class of executed instruction
system.cpu.op_class::SimdShift                      0      0.00%     61.94% # Class of executed instruction
system.cpu.op_class::SimdShiftAcc                   0      0.00%     61.94% # Class of executed instruction
system.cpu.op_class::SimdSqrt                       0      0.00%     61.94% # Class of executed instruction
system.cpu.op_class::SimdFloatAdd                   1      0.00%     61.94% # Class of executed instruction
system.cpu.op_class::SimdFloatAlu                   0      0.00%     61.94% # Class of executed instruction
system.cpu.op_class::SimdFloatCmp                   1      0.00%     61.94% # Class of executed instruction
system.cpu.op_class::SimdFloatCvt                   0      0.00%     61.94% # Class of executed instruction
system.cpu.op_class::SimdFloatDiv                   0      0.00%     61.94% # Class of executed instruction
system.cpu.op_class::SimdFloatMisc                  9      0.01%     61.95% # Class of executed instruction
system.cpu.op_class::SimdFloatMult                  0      0.00%     61.95% # Class of executed instruction
system.cpu.op_class::SimdFloatMultAcc               0      0.00%     61.95% # Class of executed instruction
system.cpu.op_class::SimdFloatSqrt                  0      0.00%     61.95% # Class of executed instruction
system.cpu.op_class::MemRead                    17478     20.89%     82.84% # Class of executed instruction
system.cpu.op_class::MemWrite                   14358     17.16%    100.00% # Class of executed instruction
system.cpu.op_class::IprAccess                      0      0.00%    100.00% # Class of executed instruction
system.cpu.op_class::InstPrefetch                   0      0.00%    100.00% # Class of executed instruction
system.cpu.op_class::total                      83674                       # Class of executed instruction
system.gpu.clk_domain.voltage_domain.voltage            1                       # Voltage in Volts
system.gpu.clk_domain.clock                      1429                       # Clock period in ticks
system.gpu.dram_wrapper.clk_domain.clock          541                       # Clock period in ticks
system.gpu.icnt_wrapper.clk_domain.clock         2858                       # Clock period in ticks
system.ruby.outstanding_req_hist::bucket_size            1                      
system.ruby.outstanding_req_hist::max_bucket            9                      
system.ruby.outstanding_req_hist::samples       107893                      
system.ruby.outstanding_req_hist::mean       1.000575                      
system.ruby.outstanding_req_hist::gmean      1.000398                      
system.ruby.outstanding_req_hist::stdev      0.023965                      
system.ruby.outstanding_req_hist         |           0      0.00%      0.00% |      107831     99.94%     99.94% |          62      0.06%    100.00% |           0      0.00%    100.00% |           0      0.00%    100.00% |           0      0.00%    100.00% |           0      0.00%    100.00% |           0      0.00%    100.00% |           0      0.00%    100.00% |           0      0.00%    100.00%
system.ruby.outstanding_req_hist::total        107893                      
system.ruby.latency_hist::bucket_size             128                      
system.ruby.latency_hist::max_bucket             1279                      
system.ruby.latency_hist::samples              107892                      
system.ruby.latency_hist::mean               2.119953                      
system.ruby.latency_hist::gmean              1.093611                      
system.ruby.latency_hist::stdev             10.807151                      
system.ruby.latency_hist                 |      107613     99.74%     99.74% |         271      0.25%     99.99% |           1      0.00%     99.99% |           1      0.00%     99.99% |           4      0.00%    100.00% |           2      0.00%    100.00% |           0      0.00%    100.00% |           0      0.00%    100.00% |           0      0.00%    100.00% |           0      0.00%    100.00%
system.ruby.latency_hist::total                107892                      
system.ruby.hit_latency_hist::bucket_size            2                      
system.ruby.hit_latency_hist::max_bucket           19                      
system.ruby.hit_latency_hist::samples          107153                      
system.ruby.hit_latency_hist::mean           1.310351                      
system.ruby.hit_latency_hist::gmean          1.059042                      
system.ruby.hit_latency_hist::stdev          2.135178                      
system.ruby.hit_latency_hist             |      104936     97.93%     97.93% |           0      0.00%     97.93% |           0      0.00%     97.93% |           0      0.00%     97.93% |           0      0.00%     97.93% |           0      0.00%     97.93% |           0      0.00%     97.93% |           0      0.00%     97.93% |        2217      2.07%    100.00% |           0      0.00%    100.00%
system.ruby.hit_latency_hist::total            107153                      
system.ruby.miss_latency_hist::bucket_size          128                      
system.ruby.miss_latency_hist::max_bucket         1279                      
system.ruby.miss_latency_hist::samples            739                      
system.ruby.miss_latency_hist::mean        119.510149                      
system.ruby.miss_latency_hist::gmean       115.214433                      
system.ruby.miss_latency_hist::stdev        50.183683                      
system.ruby.miss_latency_hist            |         460     62.25%     62.25% |         271     36.67%     98.92% |           1      0.14%     99.05% |           1      0.14%     99.19% |           4      0.54%     99.73% |           2      0.27%    100.00% |           0      0.00%    100.00% |           0      0.00%    100.00% |           0      0.00%    100.00% |           0      0.00%    100.00%
system.ruby.miss_latency_hist::total              739                      
system.gpu.shader_mmu.pagewalkers00.walker.walks            0                       # Table walker walks requested
system.gpu.shader_mmu.pagewalkers00.walker.walkRequestOrigin_Requested::Data            0                       # Table walker requests started/completed, data/inst
system.gpu.shader_mmu.pagewalkers00.walker.walkRequestOrigin_Requested::Inst            0                       # Table walker requests started/completed, data/inst
system.gpu.shader_mmu.pagewalkers00.walker.walkRequestOrigin_Requested::total            0                       # Table walker requests started/completed, data/inst
system.gpu.shader_mmu.pagewalkers00.walker.walkRequestOrigin_Completed::Data            0                       # Table walker requests started/completed, data/inst
system.gpu.shader_mmu.pagewalkers00.walker.walkRequestOrigin_Completed::Inst            0                       # Table walker requests started/completed, data/inst
system.gpu.shader_mmu.pagewalkers00.walker.walkRequestOrigin_Completed::total            0                       # Table walker requests started/completed, data/inst
system.gpu.shader_mmu.pagewalkers00.walker.walkRequestOrigin::total            0                       # Table walker requests started/completed, data/inst
system.gpu.shader_mmu.pagewalkers00.inst_hits            0                       # ITB inst hits
system.gpu.shader_mmu.pagewalkers00.inst_misses            0                       # ITB inst misses
system.gpu.shader_mmu.pagewalkers00.read_hits            0                       # DTB read hits
system.gpu.shader_mmu.pagewalkers00.read_misses            0                       # DTB read misses
system.gpu.shader_mmu.pagewalkers00.write_hits            0                       # DTB write hits
system.gpu.shader_mmu.pagewalkers00.write_misses            0                       # DTB write misses
system.gpu.shader_mmu.pagewalkers00.flush_tlb            0                       # Number of times complete TLB was flushed
system.gpu.shader_mmu.pagewalkers00.flush_tlb_mva            0                       # Number of times TLB was flushed by MVA
system.gpu.shader_mmu.pagewalkers00.flush_tlb_mva_asid            0                       # Number of times TLB was flushed by MVA & ASID
system.gpu.shader_mmu.pagewalkers00.flush_tlb_asid            0                       # Number of times TLB was flushed by ASID
system.gpu.shader_mmu.pagewalkers00.flush_entries            0                       # Number of entries that have been flushed from TLB
system.gpu.shader_mmu.pagewalkers00.align_faults            0                       # Number of TLB faults due to alignment restrictions
system.gpu.shader_mmu.pagewalkers00.prefetch_faults            0                       # Number of TLB faults due to prefetch
system.gpu.shader_mmu.pagewalkers00.domain_faults            0                       # Number of TLB faults due to domain restrictions
system.gpu.shader_mmu.pagewalkers00.perms_faults            0                       # Number of TLB faults due to permissions restrictions
system.gpu.shader_mmu.pagewalkers00.read_accesses            0                       # DTB read accesses
system.gpu.shader_mmu.pagewalkers00.write_accesses            0                       # DTB write accesses
system.gpu.shader_mmu.pagewalkers00.inst_accesses            0                       # ITB inst accesses
system.gpu.shader_mmu.pagewalkers00.hits            0                       # DTB hits
system.gpu.shader_mmu.pagewalkers00.misses            0                       # DTB misses
system.gpu.shader_mmu.pagewalkers00.accesses            0                       # DTB accesses
system.gpu.shader_mmu.pagewalkers01.walker.walks            0                       # Table walker walks requested
system.gpu.shader_mmu.pagewalkers01.walker.walkRequestOrigin_Requested::Data            0                       # Table walker requests started/completed, data/inst
system.gpu.shader_mmu.pagewalkers01.walker.walkRequestOrigin_Requested::Inst            0                       # Table walker requests started/completed, data/inst
system.gpu.shader_mmu.pagewalkers01.walker.walkRequestOrigin_Requested::total            0                       # Table walker requests started/completed, data/inst
system.gpu.shader_mmu.pagewalkers01.walker.walkRequestOrigin_Completed::Data            0                       # Table walker requests started/completed, data/inst
system.gpu.shader_mmu.pagewalkers01.walker.walkRequestOrigin_Completed::Inst            0                       # Table walker requests started/completed, data/inst
system.gpu.shader_mmu.pagewalkers01.walker.walkRequestOrigin_Completed::total            0                       # Table walker requests started/completed, data/inst
system.gpu.shader_mmu.pagewalkers01.walker.walkRequestOrigin::total            0                       # Table walker requests started/completed, data/inst
system.gpu.shader_mmu.pagewalkers01.inst_hits            0                       # ITB inst hits
system.gpu.shader_mmu.pagewalkers01.inst_misses            0                       # ITB inst misses
system.gpu.shader_mmu.pagewalkers01.read_hits            0                       # DTB read hits
system.gpu.shader_mmu.pagewalkers01.read_misses            0                       # DTB read misses
system.gpu.shader_mmu.pagewalkers01.write_hits            0                       # DTB write hits
system.gpu.shader_mmu.pagewalkers01.write_misses            0                       # DTB write misses
system.gpu.shader_mmu.pagewalkers01.flush_tlb            0                       # Number of times complete TLB was flushed
system.gpu.shader_mmu.pagewalkers01.flush_tlb_mva            0                       # Number of times TLB was flushed by MVA
system.gpu.shader_mmu.pagewalkers01.flush_tlb_mva_asid            0                       # Number of times TLB was flushed by MVA & ASID
system.gpu.shader_mmu.pagewalkers01.flush_tlb_asid            0                       # Number of times TLB was flushed by ASID
system.gpu.shader_mmu.pagewalkers01.flush_entries            0                       # Number of entries that have been flushed from TLB
system.gpu.shader_mmu.pagewalkers01.align_faults            0                       # Number of TLB faults due to alignment restrictions
system.gpu.shader_mmu.pagewalkers01.prefetch_faults            0                       # Number of TLB faults due to prefetch
system.gpu.shader_mmu.pagewalkers01.domain_faults            0                       # Number of TLB faults due to domain restrictions
system.gpu.shader_mmu.pagewalkers01.perms_faults            0                       # Number of TLB faults due to permissions restrictions
system.gpu.shader_mmu.pagewalkers01.read_accesses            0                       # DTB read accesses
system.gpu.shader_mmu.pagewalkers01.write_accesses            0                       # DTB write accesses
system.gpu.shader_mmu.pagewalkers01.inst_accesses            0                       # ITB inst accesses
system.gpu.shader_mmu.pagewalkers01.hits            0                       # DTB hits
system.gpu.shader_mmu.pagewalkers01.misses            0                       # DTB misses
system.gpu.shader_mmu.pagewalkers01.accesses            0                       # DTB accesses
system.gpu.shader_mmu.pagewalkers02.walker.walks            0                       # Table walker walks requested
system.gpu.shader_mmu.pagewalkers02.walker.walkRequestOrigin_Requested::Data            0                       # Table walker requests started/completed, data/inst
system.gpu.shader_mmu.pagewalkers02.walker.walkRequestOrigin_Requested::Inst            0                       # Table walker requests started/completed, data/inst
system.gpu.shader_mmu.pagewalkers02.walker.walkRequestOrigin_Requested::total            0                       # Table walker requests started/completed, data/inst
system.gpu.shader_mmu.pagewalkers02.walker.walkRequestOrigin_Completed::Data            0                       # Table walker requests started/completed, data/inst
system.gpu.shader_mmu.pagewalkers02.walker.walkRequestOrigin_Completed::Inst            0                       # Table walker requests started/completed, data/inst
system.gpu.shader_mmu.pagewalkers02.walker.walkRequestOrigin_Completed::total            0                       # Table walker requests started/completed, data/inst
system.gpu.shader_mmu.pagewalkers02.walker.walkRequestOrigin::total            0                       # Table walker requests started/completed, data/inst
system.gpu.shader_mmu.pagewalkers02.inst_hits            0                       # ITB inst hits
system.gpu.shader_mmu.pagewalkers02.inst_misses            0                       # ITB inst misses
system.gpu.shader_mmu.pagewalkers02.read_hits            0                       # DTB read hits
system.gpu.shader_mmu.pagewalkers02.read_misses            0                       # DTB read misses
system.gpu.shader_mmu.pagewalkers02.write_hits            0                       # DTB write hits
system.gpu.shader_mmu.pagewalkers02.write_misses            0                       # DTB write misses
system.gpu.shader_mmu.pagewalkers02.flush_tlb            0                       # Number of times complete TLB was flushed
system.gpu.shader_mmu.pagewalkers02.flush_tlb_mva            0                       # Number of times TLB was flushed by MVA
system.gpu.shader_mmu.pagewalkers02.flush_tlb_mva_asid            0                       # Number of times TLB was flushed by MVA & ASID
system.gpu.shader_mmu.pagewalkers02.flush_tlb_asid            0                       # Number of times TLB was flushed by ASID
system.gpu.shader_mmu.pagewalkers02.flush_entries            0                       # Number of entries that have been flushed from TLB
system.gpu.shader_mmu.pagewalkers02.align_faults            0                       # Number of TLB faults due to alignment restrictions
system.gpu.shader_mmu.pagewalkers02.prefetch_faults            0                       # Number of TLB faults due to prefetch
system.gpu.shader_mmu.pagewalkers02.domain_faults            0                       # Number of TLB faults due to domain restrictions
system.gpu.shader_mmu.pagewalkers02.perms_faults            0                       # Number of TLB faults due to permissions restrictions
system.gpu.shader_mmu.pagewalkers02.read_accesses            0                       # DTB read accesses
system.gpu.shader_mmu.pagewalkers02.write_accesses            0                       # DTB write accesses
system.gpu.shader_mmu.pagewalkers02.inst_accesses            0                       # ITB inst accesses
system.gpu.shader_mmu.pagewalkers02.hits            0                       # DTB hits
system.gpu.shader_mmu.pagewalkers02.misses            0                       # DTB misses
system.gpu.shader_mmu.pagewalkers02.accesses            0                       # DTB accesses
system.gpu.shader_mmu.pagewalkers03.walker.walks            0                       # Table walker walks requested
system.gpu.shader_mmu.pagewalkers03.walker.walkRequestOrigin_Requested::Data            0                       # Table walker requests started/completed, data/inst
system.gpu.shader_mmu.pagewalkers03.walker.walkRequestOrigin_Requested::Inst            0                       # Table walker requests started/completed, data/inst
system.gpu.shader_mmu.pagewalkers03.walker.walkRequestOrigin_Requested::total            0                       # Table walker requests started/completed, data/inst
system.gpu.shader_mmu.pagewalkers03.walker.walkRequestOrigin_Completed::Data            0                       # Table walker requests started/completed, data/inst
system.gpu.shader_mmu.pagewalkers03.walker.walkRequestOrigin_Completed::Inst            0                       # Table walker requests started/completed, data/inst
system.gpu.shader_mmu.pagewalkers03.walker.walkRequestOrigin_Completed::total            0                       # Table walker requests started/completed, data/inst
system.gpu.shader_mmu.pagewalkers03.walker.walkRequestOrigin::total            0                       # Table walker requests started/completed, data/inst
system.gpu.shader_mmu.pagewalkers03.inst_hits            0                       # ITB inst hits
system.gpu.shader_mmu.pagewalkers03.inst_misses            0                       # ITB inst misses
system.gpu.shader_mmu.pagewalkers03.read_hits            0                       # DTB read hits
system.gpu.shader_mmu.pagewalkers03.read_misses            0                       # DTB read misses
system.gpu.shader_mmu.pagewalkers03.write_hits            0                       # DTB write hits
system.gpu.shader_mmu.pagewalkers03.write_misses            0                       # DTB write misses
system.gpu.shader_mmu.pagewalkers03.flush_tlb            0                       # Number of times complete TLB was flushed
system.gpu.shader_mmu.pagewalkers03.flush_tlb_mva            0                       # Number of times TLB was flushed by MVA
system.gpu.shader_mmu.pagewalkers03.flush_tlb_mva_asid            0                       # Number of times TLB was flushed by MVA & ASID
system.gpu.shader_mmu.pagewalkers03.flush_tlb_asid            0                       # Number of times TLB was flushed by ASID
system.gpu.shader_mmu.pagewalkers03.flush_entries            0                       # Number of entries that have been flushed from TLB
system.gpu.shader_mmu.pagewalkers03.align_faults            0                       # Number of TLB faults due to alignment restrictions
system.gpu.shader_mmu.pagewalkers03.prefetch_faults            0                       # Number of TLB faults due to prefetch
system.gpu.shader_mmu.pagewalkers03.domain_faults            0                       # Number of TLB faults due to domain restrictions
system.gpu.shader_mmu.pagewalkers03.perms_faults            0                       # Number of TLB faults due to permissions restrictions
system.gpu.shader_mmu.pagewalkers03.read_accesses            0                       # DTB read accesses
system.gpu.shader_mmu.pagewalkers03.write_accesses            0                       # DTB write accesses
system.gpu.shader_mmu.pagewalkers03.inst_accesses            0                       # ITB inst accesses
system.gpu.shader_mmu.pagewalkers03.hits            0                       # DTB hits
system.gpu.shader_mmu.pagewalkers03.misses            0                       # DTB misses
system.gpu.shader_mmu.pagewalkers03.accesses            0                       # DTB accesses
system.gpu.shader_mmu.pagewalkers04.walker.walks            0                       # Table walker walks requested
system.gpu.shader_mmu.pagewalkers04.walker.walkRequestOrigin_Requested::Data            0                       # Table walker requests started/completed, data/inst
system.gpu.shader_mmu.pagewalkers04.walker.walkRequestOrigin_Requested::Inst            0                       # Table walker requests started/completed, data/inst
system.gpu.shader_mmu.pagewalkers04.walker.walkRequestOrigin_Requested::total            0                       # Table walker requests started/completed, data/inst
system.gpu.shader_mmu.pagewalkers04.walker.walkRequestOrigin_Completed::Data            0                       # Table walker requests started/completed, data/inst
system.gpu.shader_mmu.pagewalkers04.walker.walkRequestOrigin_Completed::Inst            0                       # Table walker requests started/completed, data/inst
system.gpu.shader_mmu.pagewalkers04.walker.walkRequestOrigin_Completed::total            0                       # Table walker requests started/completed, data/inst
system.gpu.shader_mmu.pagewalkers04.walker.walkRequestOrigin::total            0                       # Table walker requests started/completed, data/inst
system.gpu.shader_mmu.pagewalkers04.inst_hits            0                       # ITB inst hits
system.gpu.shader_mmu.pagewalkers04.inst_misses            0                       # ITB inst misses
system.gpu.shader_mmu.pagewalkers04.read_hits            0                       # DTB read hits
system.gpu.shader_mmu.pagewalkers04.read_misses            0                       # DTB read misses
system.gpu.shader_mmu.pagewalkers04.write_hits            0                       # DTB write hits
system.gpu.shader_mmu.pagewalkers04.write_misses            0                       # DTB write misses
system.gpu.shader_mmu.pagewalkers04.flush_tlb            0                       # Number of times complete TLB was flushed
system.gpu.shader_mmu.pagewalkers04.flush_tlb_mva            0                       # Number of times TLB was flushed by MVA
system.gpu.shader_mmu.pagewalkers04.flush_tlb_mva_asid            0                       # Number of times TLB was flushed by MVA & ASID
system.gpu.shader_mmu.pagewalkers04.flush_tlb_asid            0                       # Number of times TLB was flushed by ASID
system.gpu.shader_mmu.pagewalkers04.flush_entries            0                       # Number of entries that have been flushed from TLB
system.gpu.shader_mmu.pagewalkers04.align_faults            0                       # Number of TLB faults due to alignment restrictions
system.gpu.shader_mmu.pagewalkers04.prefetch_faults            0                       # Number of TLB faults due to prefetch
system.gpu.shader_mmu.pagewalkers04.domain_faults            0                       # Number of TLB faults due to domain restrictions
system.gpu.shader_mmu.pagewalkers04.perms_faults            0                       # Number of TLB faults due to permissions restrictions
system.gpu.shader_mmu.pagewalkers04.read_accesses            0                       # DTB read accesses
system.gpu.shader_mmu.pagewalkers04.write_accesses            0                       # DTB write accesses
system.gpu.shader_mmu.pagewalkers04.inst_accesses            0                       # ITB inst accesses
system.gpu.shader_mmu.pagewalkers04.hits            0                       # DTB hits
system.gpu.shader_mmu.pagewalkers04.misses            0                       # DTB misses
system.gpu.shader_mmu.pagewalkers04.accesses            0                       # DTB accesses
system.gpu.shader_mmu.pagewalkers05.walker.walks            0                       # Table walker walks requested
system.gpu.shader_mmu.pagewalkers05.walker.walkRequestOrigin_Requested::Data            0                       # Table walker requests started/completed, data/inst
system.gpu.shader_mmu.pagewalkers05.walker.walkRequestOrigin_Requested::Inst            0                       # Table walker requests started/completed, data/inst
system.gpu.shader_mmu.pagewalkers05.walker.walkRequestOrigin_Requested::total            0                       # Table walker requests started/completed, data/inst
system.gpu.shader_mmu.pagewalkers05.walker.walkRequestOrigin_Completed::Data            0                       # Table walker requests started/completed, data/inst
system.gpu.shader_mmu.pagewalkers05.walker.walkRequestOrigin_Completed::Inst            0                       # Table walker requests started/completed, data/inst
system.gpu.shader_mmu.pagewalkers05.walker.walkRequestOrigin_Completed::total            0                       # Table walker requests started/completed, data/inst
system.gpu.shader_mmu.pagewalkers05.walker.walkRequestOrigin::total            0                       # Table walker requests started/completed, data/inst
system.gpu.shader_mmu.pagewalkers05.inst_hits            0                       # ITB inst hits
system.gpu.shader_mmu.pagewalkers05.inst_misses            0                       # ITB inst misses
system.gpu.shader_mmu.pagewalkers05.read_hits            0                       # DTB read hits
system.gpu.shader_mmu.pagewalkers05.read_misses            0                       # DTB read misses
system.gpu.shader_mmu.pagewalkers05.write_hits            0                       # DTB write hits
system.gpu.shader_mmu.pagewalkers05.write_misses            0                       # DTB write misses
system.gpu.shader_mmu.pagewalkers05.flush_tlb            0                       # Number of times complete TLB was flushed
system.gpu.shader_mmu.pagewalkers05.flush_tlb_mva            0                       # Number of times TLB was flushed by MVA
system.gpu.shader_mmu.pagewalkers05.flush_tlb_mva_asid            0                       # Number of times TLB was flushed by MVA & ASID
system.gpu.shader_mmu.pagewalkers05.flush_tlb_asid            0                       # Number of times TLB was flushed by ASID
system.gpu.shader_mmu.pagewalkers05.flush_entries            0                       # Number of entries that have been flushed from TLB
system.gpu.shader_mmu.pagewalkers05.align_faults            0                       # Number of TLB faults due to alignment restrictions
system.gpu.shader_mmu.pagewalkers05.prefetch_faults            0                       # Number of TLB faults due to prefetch
system.gpu.shader_mmu.pagewalkers05.domain_faults            0                       # Number of TLB faults due to domain restrictions
system.gpu.shader_mmu.pagewalkers05.perms_faults            0                       # Number of TLB faults due to permissions restrictions
system.gpu.shader_mmu.pagewalkers05.read_accesses            0                       # DTB read accesses
system.gpu.shader_mmu.pagewalkers05.write_accesses            0                       # DTB write accesses
system.gpu.shader_mmu.pagewalkers05.inst_accesses            0                       # ITB inst accesses
system.gpu.shader_mmu.pagewalkers05.hits            0                       # DTB hits
system.gpu.shader_mmu.pagewalkers05.misses            0                       # DTB misses
system.gpu.shader_mmu.pagewalkers05.accesses            0                       # DTB accesses
system.gpu.shader_mmu.pagewalkers06.walker.walks            0                       # Table walker walks requested
system.gpu.shader_mmu.pagewalkers06.walker.walkRequestOrigin_Requested::Data            0                       # Table walker requests started/completed, data/inst
system.gpu.shader_mmu.pagewalkers06.walker.walkRequestOrigin_Requested::Inst            0                       # Table walker requests started/completed, data/inst
system.gpu.shader_mmu.pagewalkers06.walker.walkRequestOrigin_Requested::total            0                       # Table walker requests started/completed, data/inst
system.gpu.shader_mmu.pagewalkers06.walker.walkRequestOrigin_Completed::Data            0                       # Table walker requests started/completed, data/inst
system.gpu.shader_mmu.pagewalkers06.walker.walkRequestOrigin_Completed::Inst            0                       # Table walker requests started/completed, data/inst
system.gpu.shader_mmu.pagewalkers06.walker.walkRequestOrigin_Completed::total            0                       # Table walker requests started/completed, data/inst
system.gpu.shader_mmu.pagewalkers06.walker.walkRequestOrigin::total            0                       # Table walker requests started/completed, data/inst
system.gpu.shader_mmu.pagewalkers06.inst_hits            0                       # ITB inst hits
system.gpu.shader_mmu.pagewalkers06.inst_misses            0                       # ITB inst misses
system.gpu.shader_mmu.pagewalkers06.read_hits            0                       # DTB read hits
system.gpu.shader_mmu.pagewalkers06.read_misses            0                       # DTB read misses
system.gpu.shader_mmu.pagewalkers06.write_hits            0                       # DTB write hits
[...]
system.ruby.LD.L1Cache.hit_type_mach_latency_hist::mean            1                      
system.ruby.LD.L1Cache.hit_type_mach_latency_hist::gmean            1                      
system.ruby.LD.L1Cache.hit_type_mach_latency_hist |           0      0.00%      0.00% |       16146    100.00%    100.00% |           0      0.00%    100.00% |           0      0.00%    100.00% |           0      0.00%    100.00% |           0      0.00%    100.00% |           0      0.00%    100.00% |           0      0.00%    100.00% |           0      0.00%    100.00% |           0      0.00%    100.00%
system.ruby.LD.L1Cache.hit_type_mach_latency_hist::total        16146                      
system.ruby.LD.L2Cache.hit_type_mach_latency_hist::bucket_size            2                      
system.ruby.LD.L2Cache.hit_type_mach_latency_hist::max_bucket           19                      
system.ruby.LD.L2Cache.hit_type_mach_latency_hist::samples         1056                      
system.ruby.LD.L2Cache.hit_type_mach_latency_hist::mean           16                      
system.ruby.LD.L2Cache.hit_type_mach_latency_hist::gmean    16.000000                      
system.ruby.LD.L2Cache.hit_type_mach_latency_hist |           0      0.00%      0.00% |           0      0.00%      0.00% |           0      0.00%      0.00% |           0      0.00%      0.00% |           0      0.00%      0.00% |           0      0.00%      0.00% |           0      0.00%      0.00% |           0      0.00%      0.00% |        1056    100.00%    100.00% |           0      0.00%    100.00%
system.ruby.LD.L2Cache.hit_type_mach_latency_hist::total         1056                      
system.ruby.LD.Directory.miss_type_mach_latency_hist::bucket_size          128                      
system.ruby.LD.Directory.miss_type_mach_latency_hist::max_bucket         1279                      
system.ruby.LD.Directory.miss_type_mach_latency_hist::samples          169                      
system.ruby.LD.Directory.miss_type_mach_latency_hist::mean   121.218935                      
system.ruby.LD.Directory.miss_type_mach_latency_hist::gmean   115.776241                      
system.ruby.LD.Directory.miss_type_mach_latency_hist::stdev    60.110558                      
system.ruby.LD.Directory.miss_type_mach_latency_hist |         106     62.72%     62.72% |          61     36.09%     98.82% |           0      0.00%     98.82% |           0      0.00%     98.82% |           1      0.59%     99.41% |           1      0.59%    100.00% |           0      0.00%    100.00% |           0      0.00%    100.00% |           0      0.00%    100.00% |           0      0.00%    100.00%
system.ruby.LD.Directory.miss_type_mach_latency_hist::total          169                      
system.ruby.ST.L1Cache.hit_type_mach_latency_hist::bucket_size            1                      
system.ruby.ST.L1Cache.hit_type_mach_latency_hist::max_bucket            9                      
system.ruby.ST.L1Cache.hit_type_mach_latency_hist::samples        14025                      
system.ruby.ST.L1Cache.hit_type_mach_latency_hist::mean            1                      
system.ruby.ST.L1Cache.hit_type_mach_latency_hist::gmean            1                      
system.ruby.ST.L1Cache.hit_type_mach_latency_hist |           0      0.00%      0.00% |       14025    100.00%    100.00% |           0      0.00%    100.00% |           0      0.00%    100.00% |           0      0.00%    100.00% |           0      0.00%    100.00% |           0      0.00%    100.00% |           0      0.00%    100.00% |           0      0.00%    100.00% |           0      0.00%    100.00%
system.ruby.ST.L1Cache.hit_type_mach_latency_hist::total        14025                      
system.ruby.ST.Directory.miss_type_mach_latency_hist::bucket_size           64                      
system.ruby.ST.Directory.miss_type_mach_latency_hist::max_bucket          639                      
system.ruby.ST.Directory.miss_type_mach_latency_hist::samples           89                      
system.ruby.ST.Directory.miss_type_mach_latency_hist::mean   119.056180                      
system.ruby.ST.Directory.miss_type_mach_latency_hist::gmean   114.783157                      
system.ruby.ST.Directory.miss_type_mach_latency_hist::stdev    48.791150                      
system.ruby.ST.Directory.miss_type_mach_latency_hist |           0      0.00%      0.00% |          57     64.04%     64.04% |          31     34.83%     98.88% |           0      0.00%     98.88% |           0      0.00%     98.88% |           0      0.00%     98.88% |           0      0.00%     98.88% |           0      0.00%     98.88% |           1      1.12%    100.00% |           0      0.00%    100.00%
system.ruby.ST.Directory.miss_type_mach_latency_hist::total           89                      
system.ruby.IFETCH.L1Cache.hit_type_mach_latency_hist::bucket_size            1                      
system.ruby.IFETCH.L1Cache.hit_type_mach_latency_hist::max_bucket            9                      
system.ruby.IFETCH.L1Cache.hit_type_mach_latency_hist::samples        74543                      
system.ruby.IFETCH.L1Cache.hit_type_mach_latency_hist::mean            1                      
system.ruby.IFETCH.L1Cache.hit_type_mach_latency_hist::gmean            1                      
system.ruby.IFETCH.L1Cache.hit_type_mach_latency_hist |           0      0.00%      0.00% |       74543    100.00%    100.00% |           0      0.00%    100.00% |           0      0.00%    100.00% |           0      0.00%    100.00% |           0      0.00%    100.00% |           0      0.00%    100.00% |           0      0.00%    100.00% |           0      0.00%    100.00% |           0      0.00%    100.00%
system.ruby.IFETCH.L1Cache.hit_type_mach_latency_hist::total        74543                      
system.ruby.IFETCH.L2Cache.hit_type_mach_latency_hist::bucket_size            2                      
system.ruby.IFETCH.L2Cache.hit_type_mach_latency_hist::max_bucket           19                      
system.ruby.IFETCH.L2Cache.hit_type_mach_latency_hist::samples         1161                      
system.ruby.IFETCH.L2Cache.hit_type_mach_latency_hist::mean           16                      
system.ruby.IFETCH.L2Cache.hit_type_mach_latency_hist::gmean    16.000000                      
system.ruby.IFETCH.L2Cache.hit_type_mach_latency_hist |           0      0.00%      0.00% |           0      0.00%      0.00% |           0      0.00%      0.00% |           0      0.00%      0.00% |           0      0.00%      0.00% |           0      0.00%      0.00% |           0      0.00%      0.00% |           0      0.00%      0.00% |        1161    100.00%    100.00% |           0      0.00%    100.00%
system.ruby.IFETCH.L2Cache.hit_type_mach_latency_hist::total         1161                      
system.ruby.IFETCH.Directory.miss_type_mach_latency_hist::bucket_size          128                      
system.ruby.IFETCH.Directory.miss_type_mach_latency_hist::max_bucket         1279                      
system.ruby.IFETCH.Directory.miss_type_mach_latency_hist::samples          479                      
system.ruby.IFETCH.Directory.miss_type_mach_latency_hist::mean   119.012526                      
system.ruby.IFETCH.Directory.miss_type_mach_latency_hist::gmean   115.103395                      
system.ruby.IFETCH.Directory.miss_type_mach_latency_hist::stdev    46.667477                      
system.ruby.IFETCH.Directory.miss_type_mach_latency_hist |         296     61.80%     61.80% |         178     37.16%     98.96% |           1      0.21%     99.16% |           1      0.21%     99.37% |           2      0.42%     99.79% |           1      0.21%    100.00% |           0      0.00%    100.00% |           0      0.00%    100.00% |           0      0.00%    100.00% |           0      0.00%    100.00%
system.ruby.IFETCH.Directory.miss_type_mach_latency_hist::total          479                      
system.ruby.Load_Linked.L1Cache.hit_type_mach_latency_hist::bucket_size            1                      
system.ruby.Load_Linked.L1Cache.hit_type_mach_latency_hist::max_bucket            9                      
system.ruby.Load_Linked.L1Cache.hit_type_mach_latency_hist::samples          110                      
system.ruby.Load_Linked.L1Cache.hit_type_mach_latency_hist::mean            1                      
system.ruby.Load_Linked.L1Cache.hit_type_mach_latency_hist::gmean            1                      
system.ruby.Load_Linked.L1Cache.hit_type_mach_latency_hist |           0      0.00%      0.00% |         110    100.00%    100.00% |           0      0.00%    100.00% |           0      0.00%    100.00% |           0      0.00%    100.00% |           0      0.00%    100.00% |           0      0.00%    100.00% |           0      0.00%    100.00% |           0      0.00%    100.00% |           0      0.00%    100.00%
system.ruby.Load_Linked.L1Cache.hit_type_mach_latency_hist::total          110                      
system.ruby.Load_Linked.Directory.miss_type_mach_latency_hist::bucket_size           16                      
system.ruby.Load_Linked.Directory.miss_type_mach_latency_hist::max_bucket          159                      
system.ruby.Load_Linked.Directory.miss_type_mach_latency_hist::samples            2                      
system.ruby.Load_Linked.Directory.miss_type_mach_latency_hist::mean   114.500000                      
system.ruby.Load_Linked.Directory.miss_type_mach_latency_hist::gmean   113.701363                      
system.ruby.Load_Linked.Directory.miss_type_mach_latency_hist::stdev    19.091883                      
system.ruby.Load_Linked.Directory.miss_type_mach_latency_hist |           0      0.00%      0.00% |           0      0.00%      0.00% |           0      0.00%      0.00% |           0      0.00%      0.00% |           0      0.00%      0.00% |           0      0.00%      0.00% |           1     50.00%     50.00% |           0      0.00%     50.00% |           1     50.00%    100.00% |           0      0.00%    100.00%
system.ruby.Load_Linked.Directory.miss_type_mach_latency_hist::total            2                      
system.ruby.Store_Conditional.L1Cache.hit_type_mach_latency_hist::bucket_size            1                      
system.ruby.Store_Conditional.L1Cache.hit_type_mach_latency_hist::max_bucket            9                      
system.ruby.Store_Conditional.L1Cache.hit_type_mach_latency_hist::samples          112                      
system.ruby.Store_Conditional.L1Cache.hit_type_mach_latency_hist::mean            1                      
system.ruby.Store_Conditional.L1Cache.hit_type_mach_latency_hist::gmean            1                      
system.ruby.Store_Conditional.L1Cache.hit_type_mach_latency_hist |           0      0.00%      0.00% |         112    100.00%    100.00% |           0      0.00%    100.00% |           0      0.00%    100.00% |           0      0.00%    100.00% |           0      0.00%    100.00% |           0      0.00%    100.00% |           0      0.00%    100.00% |           0      0.00%    100.00% |           0      0.00%    100.00%
system.ruby.Store_Conditional.L1Cache.hit_type_mach_latency_hist::total          112                      
system.ruby.Directory_Controller.GETX              91      0.00%      0.00%
system.ruby.Directory_Controller.GETS             648      0.00%      0.00%
system.ruby.Directory_Controller.UnblockM          739      0.00%      0.00%
system.ruby.Directory_Controller.Memory_Data          739      0.00%      0.00%
system.ruby.Directory_Controller.E.GETX            91      0.00%      0.00%
system.ruby.Directory_Controller.E.GETS           648      0.00%      0.00%
system.ruby.Directory_Controller.NO_B.UnblockM          739      0.00%      0.00%
system.ruby.Directory_Controller.NO_B_W.Memory_Data          739      0.00%      0.00%
system.ruby.L1Cache_Controller.Load      |       17371    100.00%    100.00% |           0      0.00%    100.00%
system.ruby.L1Cache_Controller.Load::total        17371                      
system.ruby.L1Cache_Controller.Ifetch    |       76183    100.00%    100.00% |           0      0.00%    100.00%
system.ruby.L1Cache_Controller.Ifetch::total        76183                      
system.ruby.L1Cache_Controller.Store     |       14338    100.00%    100.00% |           0      0.00%    100.00%
system.ruby.L1Cache_Controller.Store::total        14338                      
system.ruby.L1Cache_Controller.L1_to_L2  |        2493    100.00%    100.00% |           0      0.00%    100.00%
system.ruby.L1Cache_Controller.L1_to_L2::total         2493                      
system.ruby.L1Cache_Controller.Trigger_L2_to_L1D |        1056    100.00%    100.00% |           0      0.00%    100.00%
system.ruby.L1Cache_Controller.Trigger_L2_to_L1D::total         1056                      
system.ruby.L1Cache_Controller.Trigger_L2_to_L1I |        1161    100.00%    100.00% |           0      0.00%    100.00%
system.ruby.L1Cache_Controller.Trigger_L2_to_L1I::total         1161                      
system.ruby.L1Cache_Controller.Complete_L2_to_L1 |        2217    100.00%    100.00% |           0      0.00%    100.00%
system.ruby.L1Cache_Controller.Complete_L2_to_L1::total         2217                      
system.ruby.L1Cache_Controller.Other_GETX |           0      0.00%      0.00% |          91    100.00%    100.00%
system.ruby.L1Cache_Controller.Other_GETX::total           91                      
system.ruby.L1Cache_Controller.Other_GETS |           0      0.00%      0.00% |         648    100.00%    100.00%
system.ruby.L1Cache_Controller.Other_GETS::total          648                      
system.ruby.L1Cache_Controller.Ack       |        1478    100.00%    100.00% |           0      0.00%    100.00%
system.ruby.L1Cache_Controller.Ack::total         1478                      
system.ruby.L1Cache_Controller.Exclusive_Data |         739    100.00%    100.00% |           0      0.00%    100.00%
system.ruby.L1Cache_Controller.Exclusive_Data::total          739                      
system.ruby.L1Cache_Controller.All_acks_no_sharers |         739    100.00%    100.00% |           0      0.00%    100.00%
system.ruby.L1Cache_Controller.All_acks_no_sharers::total          739                      
system.ruby.L1Cache_Controller.I.Load    |         169    100.00%    100.00% |           0      0.00%    100.00%
system.ruby.L1Cache_Controller.I.Load::total          169                      
system.ruby.L1Cache_Controller.I.Ifetch  |         479    100.00%    100.00% |           0      0.00%    100.00%
system.ruby.L1Cache_Controller.I.Ifetch::total          479                      
system.ruby.L1Cache_Controller.I.Store   |          91    100.00%    100.00% |           0      0.00%    100.00%
system.ruby.L1Cache_Controller.I.Store::total           91                      
system.ruby.L1Cache_Controller.I.Other_GETX |           0      0.00%      0.00% |          91    100.00%    100.00%
system.ruby.L1Cache_Controller.I.Other_GETX::total           91                      
system.ruby.L1Cache_Controller.I.Other_GETS |           0      0.00%      0.00% |         648    100.00%    100.00%
system.ruby.L1Cache_Controller.I.Other_GETS::total          648                      
system.ruby.L1Cache_Controller.M.Load    |        4670    100.00%    100.00% |           0      0.00%    100.00%
system.ruby.L1Cache_Controller.M.Load::total         4670                      
system.ruby.L1Cache_Controller.M.Ifetch  |       74543    100.00%    100.00% |           0      0.00%    100.00%
system.ruby.L1Cache_Controller.M.Ifetch::total        74543                      
system.ruby.L1Cache_Controller.M.Store   |          20    100.00%    100.00% |           0      0.00%    100.00%
system.ruby.L1Cache_Controller.M.Store::total           20                      
system.ruby.L1Cache_Controller.M.L1_to_L2 |        2487    100.00%    100.00% |           0      0.00%    100.00%
system.ruby.L1Cache_Controller.M.L1_to_L2::total         2487                      
system.ruby.L1Cache_Controller.M.Trigger_L2_to_L1D |        1053    100.00%    100.00% |           0      0.00%    100.00%
system.ruby.L1Cache_Controller.M.Trigger_L2_to_L1D::total         1053                      
system.ruby.L1Cache_Controller.M.Trigger_L2_to_L1I |        1161    100.00%    100.00% |           0      0.00%    100.00%
system.ruby.L1Cache_Controller.M.Trigger_L2_to_L1I::total         1161                      
system.ruby.L1Cache_Controller.MM.Load   |       11476    100.00%    100.00% |           0      0.00%    100.00%
system.ruby.L1Cache_Controller.MM.Load::total        11476                      
system.ruby.L1Cache_Controller.MM.Store  |       14227    100.00%    100.00% |           0      0.00%    100.00%
system.ruby.L1Cache_Controller.MM.Store::total        14227                      
system.ruby.L1Cache_Controller.MM.L1_to_L2 |           6    100.00%    100.00% |           0      0.00%    100.00%
system.ruby.L1Cache_Controller.MM.L1_to_L2::total            6                      
system.ruby.L1Cache_Controller.MM.Trigger_L2_to_L1D |           3    100.00%    100.00% |           0      0.00%    100.00%
system.ruby.L1Cache_Controller.MM.Trigger_L2_to_L1D::total            3                      
system.ruby.L1Cache_Controller.MR.Load   |        1053    100.00%    100.00% |           0      0.00%    100.00%
system.ruby.L1Cache_Controller.MR.Load::total         1053                      
system.ruby.L1Cache_Controller.MR.Ifetch |        1161    100.00%    100.00% |           0      0.00%    100.00%
system.ruby.L1Cache_Controller.MR.Ifetch::total         1161                      
system.ruby.L1Cache_Controller.MMR.Load  |           3    100.00%    100.00% |           0      0.00%    100.00%
system.ruby.L1Cache_Controller.MMR.Load::total            3                      
system.ruby.L1Cache_Controller.IM.Ack    |         182    100.00%    100.00% |           0      0.00%    100.00%
system.ruby.L1Cache_Controller.IM.Ack::total          182                      
system.ruby.L1Cache_Controller.IM.Exclusive_Data |          91    100.00%    100.00% |           0      0.00%    100.00%
system.ruby.L1Cache_Controller.IM.Exclusive_Data::total           91                      
system.ruby.L1Cache_Controller.M_W.All_acks_no_sharers |         648    100.00%    100.00% |           0      0.00%    100.00%
system.ruby.L1Cache_Controller.M_W.All_acks_no_sharers::total          648                      
system.ruby.L1Cache_Controller.MM_W.All_acks_no_sharers |          91    100.00%    100.00% |           0      0.00%    100.00%
system.ruby.L1Cache_Controller.MM_W.All_acks_no_sharers::total           91                      
system.ruby.L1Cache_Controller.IS.Ack    |        1296    100.00%    100.00% |           0      0.00%    100.00%
system.ruby.L1Cache_Controller.IS.Ack::total         1296                      
system.ruby.L1Cache_Controller.IS.Exclusive_Data |         648    100.00%    100.00% |           0      0.00%    100.00%
system.ruby.L1Cache_Controller.IS.Exclusive_Data::total          648                      
system.ruby.L1Cache_Controller.MT.Complete_L2_to_L1 |        2214    100.00%    100.00% |           0      0.00%    100.00%
system.ruby.L1Cache_Controller.MT.Complete_L2_to_L1::total         2214                      
system.ruby.L1Cache_Controller.MMT.Complete_L2_to_L1 |           3    100.00%    100.00% |           0      0.00%    100.00%
system.ruby.L1Cache_Controller.MMT.Complete_L2_to_L1::total            3                      
system.ruby.GPUL2Cache_Controller.Other_GETX           91      0.00%      0.00%
system.ruby.GPUL2Cache_Controller.Other_GETS          648      0.00%      0.00%
system.ruby.GPUL2Cache_Controller.I.Other_GETX           91      0.00%      0.00%
system.ruby.GPUL2Cache_Controller.I.Other_GETS          648      0.00%      0.00%

---------- End Simulation Statistics   ----------
